REMARK from dok file => REMARK Cluster   1 of Poses:  2 Score: -4.16 kcal/mol
 OpenBabel07182423433D

 28 29  0  0  1  0  0  0  0  0999 V2000
   47.6310   42.4390   26.4530 C   0  0  1  0  0  0  0  0  0  0  0  0
   48.9140   43.4300   23.7450 Br  0  0  0  0  0  0  0  0  0  0  0  0
   48.8620   43.3590   26.5040 C   0  0  0  0  0  0  0  0  0  0  0  0
   49.4980   43.8110   25.3290 C   0  0  0  0  0  0  0  0  0  0  0  0
   49.4270   43.7510   27.7350 C   0  0  0  0  0  0  0  0  0  0  0  0
   50.6460   44.6100   25.3900 C   0  0  0  0  0  0  0  0  0  0  0  0
   50.5640   44.5600   27.7930 C   0  0  0  0  0  0  0  0  0  0  0  0
   51.1800   44.9850   26.6180 C   0  0  0  0  0  0  0  0  0  0  0  0
   48.9300   36.6090   25.4470 Cl  0  0  0  0  0  0  0  0  0  0  0  0
   48.0490   40.9920   26.1510 C   0  0  0  0  0  0  0  0  0  0  0  0
   47.4390   40.2980   25.0920 C   0  0  0  0  0  0  0  0  0  0  0  0
   48.9890   40.3140   26.9470 C   0  0  0  0  0  0  0  0  0  0  0  0
   47.7250   38.9500   24.8630 C   0  0  0  0  0  0  0  0  0  0  0  0
   49.2650   38.9620   26.7220 C   0  0  0  0  0  0  0  0  0  0  0  0
   48.6240   38.2840   25.6900 C   0  0  0  0  0  0  0  0  0  0  0  0
   45.0820   41.7650   27.3510 Cl  0  0  0  0  0  0  0  0  0  0  0  0
   47.3700   41.6380   29.1120 Cl  0  0  0  0  0  0  0  0  0  0  0  0
   46.6820   42.5010   27.6890 C   0  0  0  0  0  0  0  0  0  0  0  0
   47.0040   42.7850   25.6200 H   0  0  0  0  0  0  0  0  0  0  0  0
   48.9930   43.4390   28.6840 H   0  0  0  0  0  0  0  0  0  0  0  0
   51.1310   44.9460   24.4760 H   0  0  0  0  0  0  0  0  0  0  0  0
   50.9750   44.8580   28.7550 H   0  0  0  0  0  0  0  0  0  0  0  0
   52.0690   45.6070   26.6610 H   0  0  0  0  0  0  0  0  0  0  0  0
   46.7150   40.7930   24.4470 H   0  0  0  0  0  0  0  0  0  0  0  0
   49.5020   40.8150   27.7630 H   0  0  0  0  0  0  0  0  0  0  0  0
   47.2290   38.4250   24.0500 H   0  0  0  0  0  0  0  0  0  0  0  0
   49.9690   38.4420   27.3660 H   0  0  0  0  0  0  0  0  0  0  0  0
   46.4970   43.5270   28.0190 H   0  0  0  0  0  0  0  0  0  0  0  0
  1 19  1  6  0  0  0
  1  3  1  0  0  0  0
  1 18  1  0  0  0  0
  2  4  1  0  0  0  0
  3  5  1  0  0  0  0
  4  6  1  0  0  0  0
  4  3  2  0  0  0  0
  5  7  2  0  0  0  0
  5 20  1  0  0  0  0
  6  8  2  0  0  0  0
  7 22  1  0  0  0  0
  8 23  1  0  0  0  0
  8  7  1  0  0  0  0
  9 15  1  0  0  0  0
 10  1  1  0  0  0  0
 10 12  1  0  0  0  0
 11 10  2  0  0  0  0
 12 25  1  0  0  0  0
 13 11  1  0  0  0  0
 13 15  2  0  0  0  0
 14 12  2  0  0  0  0
 14 27  1  0  0  0  0
 15 14  1  0  0  0  0
 16 18  1  0  0  0  0
 18 28  1  0  0  0  0
 18 17  1  0  0  0  0
 21  6  1  0  0  0  0
 24 11  1  0  0  0  0
 26 13  1  0  0  0  0
M  END
$$$$

REMARK from dok file => REMARK Cluster   2 of Poses:  2 Score: -4.08 kcal/mol
 OpenBabel07182423433D

 28 29  0  0  1  0  0  0  0  0999 V2000
   47.5510   42.5680   25.9700 C   0  0  1  0  0  0  0  0  0  0  0  0
   47.3700   40.9630   28.6810 Cl  0  0  0  0  0  0  0  0  0  0  0  0
   46.2900   42.7120   26.8380 C   0  0  0  0  0  0  0  0  0  0  0  0
   46.1380   41.9990   28.0460 C   0  0  0  0  0  0  0  0  0  0  0  0
   45.2190   43.5360   26.4350 C   0  0  0  0  0  0  0  0  0  0  0  0
   44.9640   42.1040   28.8040 C   0  0  0  0  0  0  0  0  0  0  0  0
   44.0560   43.6500   27.2010 C   0  0  0  0  0  0  0  0  0  0  0  0
   43.9250   42.9270   28.3840 C   0  0  0  0  0  0  0  0  0  0  0  0
   52.2590   45.8630   27.8840 Cl  0  0  0  0  0  0  0  0  0  0  0  0
   48.6770   43.4730   26.4950 C   0  0  0  0  0  0  0  0  0  0  0  0
   49.3770   44.3000   25.6020 C   0  0  0  0  0  0  0  0  0  0  0  0
   49.0700   43.4530   27.8440 C   0  0  0  0  0  0  0  0  0  0  0  0
   50.4710   45.0530   26.0340 C   0  0  0  0  0  0  0  0  0  0  0  0
   50.1730   44.1980   28.2720 C   0  0  0  0  0  0  0  0  0  0  0  0
   50.8750   44.9850   27.3640 C   0  0  0  0  0  0  0  0  0  0  0  0
   46.7490   40.0060   25.2250 Cl  0  0  0  0  0  0  0  0  0  0  0  0
   49.3500   41.0310   24.4920 Cl  0  0  0  0  0  0  0  0  0  0  0  0
   48.0620   41.1100   25.7480 C   0  0  0  0  0  0  0  0  0  0  0  0
   47.2890   42.9130   24.9610 H   0  0  0  0  0  0  0  0  0  0  0  0
   45.2640   44.1150   25.5140 H   0  0  0  0  0  0  0  0  0  0  0  0
   44.8570   41.5430   29.7290 H   0  0  0  0  0  0  0  0  0  0  0  0
   43.2480   44.2990   26.8740 H   0  0  0  0  0  0  0  0  0  0  0  0
   43.0180   43.0070   28.9760 H   0  0  0  0  0  0  0  0  0  0  0  0
   49.0930   44.3510   24.5520 H   0  0  0  0  0  0  0  0  0  0  0  0
   48.5460   42.8450   28.5760 H   0  0  0  0  0  0  0  0  0  0  0  0
   51.0120   45.6730   25.3240 H   0  0  0  0  0  0  0  0  0  0  0  0
   50.4870   44.1480   29.3110 H   0  0  0  0  0  0  0  0  0  0  0  0
   48.4980   40.6810   26.6540 H   0  0  0  0  0  0  0  0  0  0  0  0
  1 19  1  6  0  0  0
  1 10  1  0  0  0  0
  1  3  1  0  0  0  0
  3  4  1  0  0  0  0
  4  2  1  0  0  0  0
  4  6  2  0  0  0  0
  5  3  2  0  0  0  0
  5  7  1  0  0  0  0
  6 21  1  0  0  0  0
  7  8  2  0  0  0  0
  8  6  1  0  0  0  0
  8 23  1  0  0  0  0
 10 12  1  0  0  0  0
 11 13  1  0  0  0  0
 11 10  2  0  0  0  0
 12 14  2  0  0  0  0
 12 25  1  0  0  0  0
 13 15  2  0  0  0  0
 14 27  1  0  0  0  0
 15  9  1  0  0  0  0
 15 14  1  0  0  0  0
 16 18  1  0  0  0  0
 17 18  1  0  0  0  0
 18  1  1  0  0  0  0
 18 28  1  0  0  0  0
 20  5  1  0  0  0  0
 22  7  1  0  0  0  0
 24 11  1  0  0  0  0
 26 13  1  0  0  0  0
M  END
$$$$

REMARK from dok file => REMARK Cluster   3 of Poses:  1 Score: -4.05 kcal/mol
 OpenBabel07182423433D

 28 29  0  0  1  0  0  0  0  0999 V2000
   56.2930   35.1620   28.7790 C   0  0  1  0  0  0  0  0  0  0  0  0
   54.5540   33.1180   27.1180 Cl  0  0  0  0  0  0  0  0  0  0  0  0
   56.5850   34.9810   27.2800 C   0  0  0  0  0  0  0  0  0  0  0  0
   55.8620   34.0610   26.4910 C   0  0  0  0  0  0  0  0  0  0  0  0
   57.6190   35.7010   26.6480 C   0  0  0  0  0  0  0  0  0  0  0  0
   56.1700   33.8720   25.1370 C   0  0  0  0  0  0  0  0  0  0  0  0
   57.9140   35.5210   25.2940 C   0  0  0  0  0  0  0  0  0  0  0  0
   57.1930   34.6000   24.5390 C   0  0  0  0  0  0  0  0  0  0  0  0
   58.6340   30.3430   31.6060 Cl  0  0  0  0  0  0  0  0  0  0  0  0
   56.8600   33.9840   29.5870 C   0  0  0  0  0  0  0  0  0  0  0  0
   58.2480   33.8700   29.7690 C   0  0  0  0  0  0  0  0  0  0  0  0
   56.0270   32.9760   30.1040 C   0  0  0  0  0  0  0  0  0  0  0  0
   58.7950   32.7550   30.4080 C   0  0  0  0  0  0  0  0  0  0  0  0
   56.5780   31.8560   30.7340 C   0  0  0  0  0  0  0  0  0  0  0  0
   57.9580   31.7450   30.8730 C   0  0  0  0  0  0  0  0  0  0  0  0
   56.1280   37.9220   28.4440 Cl  0  0  0  0  0  0  0  0  0  0  0  0
   56.1110   36.7320   31.0780 Cl  0  0  0  0  0  0  0  0  0  0  0  0
   56.7270   36.5270   29.3980 C   0  0  0  0  0  0  0  0  0  0  0  0
   55.2010   35.1520   28.8980 H   0  0  0  0  0  0  0  0  0  0  0  0
   58.2220   36.4260   27.1930 H   0  0  0  0  0  0  0  0  0  0  0  0
   55.6100   33.1550   24.5430 H   0  0  0  0  0  0  0  0  0  0  0  0
   58.7100   36.0950   24.8270 H   0  0  0  0  0  0  0  0  0  0  0  0
   57.4270   34.4510   23.4880 H   0  0  0  0  0  0  0  0  0  0  0  0
   58.9230   34.6370   29.3930 H   0  0  0  0  0  0  0  0  0  0  0  0
   54.9470   33.0320   30.0070 H   0  0  0  0  0  0  0  0  0  0  0  0
   59.8730   32.6750   30.5230 H   0  0  0  0  0  0  0  0  0  0  0  0
   55.9250   31.0680   31.1000 H   0  0  0  0  0  0  0  0  0  0  0  0
   57.8140   36.6260   29.4610 H   0  0  0  0  0  0  0  0  0  0  0  0
  1 19  1  1  0  0  0
  1 18  1  0  0  0  0
  1 10  1  0  0  0  0
  3  1  1  0  0  0  0
  4  2  1  0  0  0  0
  4  3  2  0  0  0  0
  5 20  1  0  0  0  0
  5  3  1  0  0  0  0
  6  4  1  0  0  0  0
  7  5  2  0  0  0  0
  8  6  2  0  0  0  0
  8  7  1  0  0  0  0
 10 11  2  0  0  0  0
 10 12  1  0  0  0  0
 11 13  1  0  0  0  0
 12 14  2  0  0  0  0
 13 26  1  0  0  0  0
 13 15  2  0  0  0  0
 14 15  1  0  0  0  0
 14 27  1  0  0  0  0
 15  9  1  0  0  0  0
 16 18  1  0  0  0  0
 18 28  1  0  0  0  0
 18 17  1  0  0  0  0
 21  6  1  0  0  0  0
 22  7  1  0  0  0  0
 23  8  1  0  0  0  0
 24 11  1  0  0  0  0
 25 12  1  0  0  0  0
M  END
$$$$

REMARK from dok file => REMARK Cluster   4 of Poses:  2 Score: -4.03 kcal/mol
 OpenBabel07182423433D

 28 29  0  0  1  0  0  0  0  0999 V2000
   47.6280   42.4190   26.5610 C   0  0  1  0  0  0  0  0  0  0  0  0
   48.8010   43.4370   23.8130 Cl  0  0  0  0  0  0  0  0  0  0  0  0
   48.9660   43.1780   26.5570 C   0  0  0  0  0  0  0  0  0  0  0  0
   49.5560   43.6310   25.3580 C   0  0  0  0  0  0  0  0  0  0  0  0
   49.6750   43.4100   27.7530 C   0  0  0  0  0  0  0  0  0  0  0  0
   50.7980   44.2800   25.3640 C   0  0  0  0  0  0  0  0  0  0  0  0
   50.9060   44.0700   27.7570 C   0  0  0  0  0  0  0  0  0  0  0  0
   51.4730   44.5000   26.5600 C   0  0  0  0  0  0  0  0  0  0  0  0
   48.8160   36.7120   24.9140 Cl  0  0  0  0  0  0  0  0  0  0  0  0
   47.8420   40.9430   26.1930 C   0  0  0  0  0  0  0  0  0  0  0  0
   48.7910   40.1820   26.8950 C   0  0  0  0  0  0  0  0  0  0  0  0
   47.1520   40.3410   25.1260 C   0  0  0  0  0  0  0  0  0  0  0  0
   49.0790   38.8690   26.5120 C   0  0  0  0  0  0  0  0  0  0  0  0
   47.4500   39.0320   24.7380 C   0  0  0  0  0  0  0  0  0  0  0  0
   48.4190   38.3060   25.4250 C   0  0  0  0  0  0  0  0  0  0  0  0
   45.0900   41.9810   27.6210 Cl  0  0  0  0  0  0  0  0  0  0  0  0
   47.4650   41.6100   29.2260 Cl  0  0  0  0  0  0  0  0  0  0  0  0
   46.7720   42.5550   27.8580 C   0  0  0  0  0  0  0  0  0  0  0  0
   47.0000   42.8690   25.7800 H   0  0  0  0  0  0  0  0  0  0  0  0
   49.2840   43.0870   28.7170 H   0  0  0  0  0  0  0  0  0  0  0  0
   51.2440   44.6180   24.4320 H   0  0  0  0  0  0  0  0  0  0  0  0
   51.4290   44.2470   28.6940 H   0  0  0  0  0  0  0  0  0  0  0  0
   52.4350   45.0040   26.5590 H   0  0  0  0  0  0  0  0  0  0  0  0
   49.3370   40.6090   27.7350 H   0  0  0  0  0  0  0  0  0  0  0  0
   46.3940   40.8840   24.5680 H   0  0  0  0  0  0  0  0  0  0  0  0
   49.8300   38.3020   27.0560 H   0  0  0  0  0  0  0  0  0  0  0  0
   46.9330   38.5900   23.8900 H   0  0  0  0  0  0  0  0  0  0  0  0
   46.7100   43.5900   28.2080 H   0  0  0  0  0  0  0  0  0  0  0  0
  1 19  1  6  0  0  0
  1 18  1  0  0  0  0
  2  4  1  0  0  0  0
  3  1  1  0  0  0  0
  3  5  1  0  0  0  0
  4  6  1  0  0  0  0
  4  3  2  0  0  0  0
  5  7  2  0  0  0  0
  5 20  1  0  0  0  0
  6  8  2  0  0  0  0
  7 22  1  0  0  0  0
  8  7  1  0  0  0  0
  9 15  1  0  0  0  0
 10  1  1  0  0  0  0
 10 11  1  0  0  0  0
 11 24  1  0  0  0  0
 12 10  2  0  0  0  0
 13 11  2  0  0  0  0
 13 26  1  0  0  0  0
 14 12  1  0  0  0  0
 14 15  2  0  0  0  0
 15 13  1  0  0  0  0
 16 18  1  0  0  0  0
 18 28  1  0  0  0  0
 18 17  1  0  0  0  0
 21  6  1  0  0  0  0
 23  8  1  0  0  0  0
 25 12  1  0  0  0  0
 27 14  1  0  0  0  0
M  END
$$$$

REMARK from dok file => REMARK Cluster   5 of Poses:  3 Score: -4.01 kcal/mol
 OpenBabel07182423433D

 28 29  0  0  1  0  0  0  0  0999 V2000
   49.2440   41.9470   26.8880 C   0  0  1  0  0  0  0  0  0  0  0  0
   50.6520   44.1560   28.6470 Cl  0  0  0  0  0  0  0  0  0  0  0  0
   49.8800   43.1610   26.1910 C   0  0  0  0  0  0  0  0  0  0  0  0
   50.4970   44.1960   26.9250 C   0  0  0  0  0  0  0  0  0  0  0  0
   49.8300   43.3040   24.7890 C   0  0  0  0  0  0  0  0  0  0  0  0
   51.0310   45.3200   26.2800 C   0  0  0  0  0  0  0  0  0  0  0  0
   50.3760   44.4190   24.1480 C   0  0  0  0  0  0  0  0  0  0  0  0
   50.9710   45.4330   24.8950 C   0  0  0  0  0  0  0  0  0  0  0  0
   43.3770   43.1650   27.7730 Cl  0  0  0  0  0  0  0  0  0  0  0  0
   47.7340   42.1600   27.0760 C   0  0  0  0  0  0  0  0  0  0  0  0
   47.0210   42.9400   26.1510 C   0  0  0  0  0  0  0  0  0  0  0  0
   47.0490   41.6420   28.1900 C   0  0  0  0  0  0  0  0  0  0  0  0
   45.6710   43.2350   26.3560 C   0  0  0  0  0  0  0  0  0  0  0  0
   45.7010   41.9490   28.3980 C   0  0  0  0  0  0  0  0  0  0  0  0
   45.0220   42.7520   27.4880 C   0  0  0  0  0  0  0  0  0  0  0  0
   49.4420   39.2220   27.4320 Cl  0  0  0  0  0  0  0  0  0  0  0  0
   48.3760   40.1710   24.9190 Cl  0  0  0  0  0  0  0  0  0  0  0  0
   49.5380   40.5590   26.2400 C   0  0  0  0  0  0  0  0  0  0  0  0
   49.6970   41.8750   27.8860 H   0  0  0  0  0  0  0  0  0  0  0  0
   49.3680   42.5480   24.1570 H   0  0  0  0  0  0  0  0  0  0  0  0
   51.4980   46.1140   26.8580 H   0  0  0  0  0  0  0  0  0  0  0  0
   50.3350   44.5020   23.0650 H   0  0  0  0  0  0  0  0  0  0  0  0
   51.3880   46.3050   24.3990 H   0  0  0  0  0  0  0  0  0  0  0  0
   47.5140   43.3480   25.2710 H   0  0  0  0  0  0  0  0  0  0  0  0
   47.5540   41.0160   28.9210 H   0  0  0  0  0  0  0  0  0  0  0  0
   45.1410   43.8560   25.6380 H   0  0  0  0  0  0  0  0  0  0  0  0
   45.1930   41.5690   29.2810 H   0  0  0  0  0  0  0  0  0  0  0  0
   50.5330   40.5140   25.7890 H   0  0  0  0  0  0  0  0  0  0  0  0
  1 10  1  0  0  0  0
  1 19  1  1  0  0  0
  3  1  1  0  0  0  0
  3  4  1  0  0  0  0
  4  2  1  0  0  0  0
  5  3  2  0  0  0  0
  6 21  1  0  0  0  0
  6  4  2  0  0  0  0
  7  5  1  0  0  0  0
  7  8  2  0  0  0  0
  8  6  1  0  0  0  0
 10 12  1  0  0  0  0
 11 13  1  0  0  0  0
 11 10  2  0  0  0  0
 12 14  2  0  0  0  0
 12 25  1  0  0  0  0
 13 15  2  0  0  0  0
 14 27  1  0  0  0  0
 15  9  1  0  0  0  0
 15 14  1  0  0  0  0
 17 18  1  0  0  0  0
 18  1  1  0  0  0  0
 18 16  1  0  0  0  0
 20  5  1  0  0  0  0
 22  7  1  0  0  0  0
 23  8  1  0  0  0  0
 24 11  1  0  0  0  0
 26 13  1  0  0  0  0
 28 18  1  0  0  0  0
M  END
$$$$

REMARK from dok file => REMARK Cluster   6 of Poses:  1 Score: -3.93 kcal/mol
 OpenBabel07182423433D

 28 29  0  0  1  0  0  0  0  0999 V2000
   47.9420   41.9210   26.5100 C   0  0  1  0  0  0  0  0  0  0  0  0
   47.6200   41.5590   29.6280 Cl  0  0  0  0  0  0  0  0  0  0  0  0
   46.5570   42.1290   27.1450 C   0  0  0  0  0  0  0  0  0  0  0  0
   46.3430   41.9520   28.5280 C   0  0  0  0  0  0  0  0  0  0  0  0
   45.4370   42.4630   26.3560 C   0  0  0  0  0  0  0  0  0  0  0  0
   45.0670   42.0990   29.0870 C   0  0  0  0  0  0  0  0  0  0  0  0
   44.1680   42.6230   26.9190 C   0  0  0  0  0  0  0  0  0  0  0  0
   43.9810   42.4340   28.2860 C   0  0  0  0  0  0  0  0  0  0  0  0
   48.9120   36.3420   24.3590 Cl  0  0  0  0  0  0  0  0  0  0  0  0
   48.0930   40.4800   25.9990 C   0  0  0  0  0  0  0  0  0  0  0  0
   48.8830   39.5670   26.7170 C   0  0  0  0  0  0  0  0  0  0  0  0
   47.5070   40.0590   24.7920 C   0  0  0  0  0  0  0  0  0  0  0  0
   49.1210   38.2830   26.2210 C   0  0  0  0  0  0  0  0  0  0  0  0
   47.7560   38.7780   24.2920 C   0  0  0  0  0  0  0  0  0  0  0  0
   48.5700   37.9010   25.0010 C   0  0  0  0  0  0  0  0  0  0  0  0
   49.0770   44.4330   26.1070 Cl  0  0  0  0  0  0  0  0  0  0  0  0
   49.5480   42.2650   24.2550 Cl  0  0  0  0  0  0  0  0  0  0  0  0
   48.3480   42.9500   25.4100 C   0  0  0  0  0  0  0  0  0  0  0  0
   48.6870   42.0730   27.3030 H   0  0  0  0  0  0  0  0  0  0  0  0
   45.5240   42.6130   25.2820 H   0  0  0  0  0  0  0  0  0  0  0  0
   44.9150   41.9530   30.1540 H   0  0  0  0  0  0  0  0  0  0  0  0
   43.3220   42.8920   26.2920 H   0  0  0  0  0  0  0  0  0  0  0  0
   42.9930   42.5480   28.7240 H   0  0  0  0  0  0  0  0  0  0  0  0
   49.3430   39.8520   27.6620 H   0  0  0  0  0  0  0  0  0  0  0  0
   46.8710   40.7230   24.2130 H   0  0  0  0  0  0  0  0  0  0  0  0
   49.7500   37.5970   26.7810 H   0  0  0  0  0  0  0  0  0  0  0  0
   47.3240   38.4780   23.3410 H   0  0  0  0  0  0  0  0  0  0  0  0
   47.4940   43.2680   24.8040 H   0  0  0  0  0  0  0  0  0  0  0  0
  1  3  1  0  0  0  0
  1 19  1  1  0  0  0
  3  4  1  0  0  0  0
  4  6  2  0  0  0  0
  4  2  1  0  0  0  0
  5  7  1  0  0  0  0
  5  3  2  0  0  0  0
  6 21  1  0  0  0  0
  7  8  2  0  0  0  0
  8 23  1  0  0  0  0
  8  6  1  0  0  0  0
  9 15  1  0  0  0  0
 10  1  1  0  0  0  0
 10 11  1  0  0  0  0
 11 24  1  0  0  0  0
 12 10  2  0  0  0  0
 13 11  2  0  0  0  0
 13 26  1  0  0  0  0
 14 12  1  0  0  0  0
 14 15  2  0  0  0  0
 15 13  1  0  0  0  0
 17 18  1  0  0  0  0
 18 16  1  0  0  0  0
 18  1  1  0  0  0  0
 20  5  1  0  0  0  0
 22  7  1  0  0  0  0
 25 12  1  0  0  0  0
 27 14  1  0  0  0  0
 28 18  1  0  0  0  0
M  END
$$$$

REMARK from dok file => REMARK Cluster   7 of Poses:  3 Score: -3.90 kcal/mol
 OpenBabel07182423433D

 28 29  0  0  1  0  0  0  0  0999 V2000
   48.4400   41.9630   25.2910 C   0  0  1  0  0  0  0  0  0  0  0  0
   49.5390   39.6960   27.1920 Cl  0  0  0  0  0  0  0  0  0  0  0  0
   48.4300   40.5070   24.7970 C   0  0  0  0  0  0  0  0  0  0  0  0
   48.9350   39.4540   25.5890 C   0  0  0  0  0  0  0  0  0  0  0  0
   47.9510   40.1770   23.5130 C   0  0  0  0  0  0  0  0  0  0  0  0
   48.9620   38.1380   25.1080 C   0  0  0  0  0  0  0  0  0  0  0  0
   47.9660   38.8620   23.0420 C   0  0  0  0  0  0  0  0  0  0  0  0
   48.4790   37.8410   23.8380 C   0  0  0  0  0  0  0  0  0  0  0  0
   43.5980   42.6400   28.8670 Cl  0  0  0  0  0  0  0  0  0  0  0  0
   47.2550   42.2230   26.2340 C   0  0  0  0  0  0  0  0  0  0  0  0
   47.1450   41.4950   27.4300 C   0  0  0  0  0  0  0  0  0  0  0  0
   46.2360   43.1340   25.9040 C   0  0  0  0  0  0  0  0  0  0  0  0
   46.0250   41.6380   28.2530 C   0  0  0  0  0  0  0  0  0  0  0  0
   45.1110   43.2660   26.7230 C   0  0  0  0  0  0  0  0  0  0  0  0
   45.0050   42.5100   27.8870 C   0  0  0  0  0  0  0  0  0  0  0  0
   51.1390   42.3960   24.7560 Cl  0  0  0  0  0  0  0  0  0  0  0  0
   49.6600   44.1590   26.5050 Cl  0  0  0  0  0  0  0  0  0  0  0  0
   49.7780   42.4590   25.9220 C   0  0  0  0  0  0  0  0  0  0  0  0
   48.3100   42.6040   24.4080 H   0  0  0  0  0  0  0  0  0  0  0  0
   47.5480   40.9370   22.8440 H   0  0  0  0  0  0  0  0  0  0  0  0
   49.3610   37.3370   25.7260 H   0  0  0  0  0  0  0  0  0  0  0  0
   47.5820   38.6310   22.0510 H   0  0  0  0  0  0  0  0  0  0  0  0
   48.5010   36.8190   23.4710 H   0  0  0  0  0  0  0  0  0  0  0  0
   47.9210   40.7900   27.7250 H   0  0  0  0  0  0  0  0  0  0  0  0
   46.2880   43.7340   25.0000 H   0  0  0  0  0  0  0  0  0  0  0  0
   45.9500   41.0520   29.1650 H   0  0  0  0  0  0  0  0  0  0  0  0
   44.3140   43.9490   26.4390 H   0  0  0  0  0  0  0  0  0  0  0  0
   50.0730   41.8620   26.7900 H   0  0  0  0  0  0  0  0  0  0  0  0
  1 19  1  6  0  0  0
  1 18  1  0  0  0  0
  1 10  1  0  0  0  0
  3  1  1  0  0  0  0
  3  4  1  0  0  0  0
  4  2  1  0  0  0  0
  5  3  2  0  0  0  0
  6  4  2  0  0  0  0
  6 21  1  0  0  0  0
  7  5  1  0  0  0  0
  7  8  2  0  0  0  0
  8  6  1  0  0  0  0
 10 11  1  0  0  0  0
 11 24  1  0  0  0  0
 11 13  2  0  0  0  0
 12 10  2  0  0  0  0
 12 14  1  0  0  0  0
 13 26  1  0  0  0  0
 14 15  2  0  0  0  0
 15 13  1  0  0  0  0
 15  9  1  0  0  0  0
 16 18  1  0  0  0  0
 18 17  1  0  0  0  0
 18 28  1  0  0  0  0
 20  5  1  0  0  0  0
 22  7  1  0  0  0  0
 23  8  1  0  0  0  0
 25 12  1  0  0  0  0
 27 14  1  0  0  0  0
M  END
$$$$

REMARK from dok file => REMARK Cluster   8 of Poses:  1 Score: -3.90 kcal/mol
 OpenBabel07182423433D

 28 29  0  0  1  0  0  0  0  0999 V2000
   47.9060   42.1810   26.3730 C   0  0  1  0  0  0  0  0  0  0  0  0
   47.6240   41.3570   29.4070 Cl  0  0  0  0  0  0  0  0  0  0  0  0
   46.5410   42.3390   27.0650 C   0  0  0  0  0  0  0  0  0  0  0  0
   46.3450   41.9610   28.4100 C   0  0  0  0  0  0  0  0  0  0  0  0
   45.4220   42.8310   26.3630 C   0  0  0  0  0  0  0  0  0  0  0  0
   45.0860   42.0670   29.0140 C   0  0  0  0  0  0  0  0  0  0  0  0
   44.1710   42.9490   26.9720 C   0  0  0  0  0  0  0  0  0  0  0  0
   44.0000   42.5600   28.2980 C   0  0  0  0  0  0  0  0  0  0  0  0
   48.3970   36.3730   24.7230 Cl  0  0  0  0  0  0  0  0  0  0  0  0
   48.0990   40.7380   25.8810 C   0  0  0  0  0  0  0  0  0  0  0  0
   47.1170   40.1410   25.0730 C   0  0  0  0  0  0  0  0  0  0  0  0
   49.2100   39.9690   26.2680 C   0  0  0  0  0  0  0  0  0  0  0  0
   47.2180   38.7990   24.7000 C   0  0  0  0  0  0  0  0  0  0  0  0
   49.3030   38.6230   25.9030 C   0  0  0  0  0  0  0  0  0  0  0  0
   48.3020   38.0410   25.1310 C   0  0  0  0  0  0  0  0  0  0  0  0
   49.3980   44.4510   25.7610 Cl  0  0  0  0  0  0  0  0  0  0  0  0
   48.9040   42.4070   23.7780 Cl  0  0  0  0  0  0  0  0  0  0  0  0
   48.2180   43.2050   25.2390 C   0  0  0  0  0  0  0  0  0  0  0  0
   48.6760   42.3800   27.1300 H   0  0  0  0  0  0  0  0  0  0  0  0
   45.4960   43.1400   25.3210 H   0  0  0  0  0  0  0  0  0  0  0  0
   44.9470   41.7650   30.0490 H   0  0  0  0  0  0  0  0  0  0  0  0
   43.3240   43.3410   26.4130 H   0  0  0  0  0  0  0  0  0  0  0  0
   43.0250   42.6420   28.7720 H   0  0  0  0  0  0  0  0  0  0  0  0
   46.2480   40.7080   24.7430 H   0  0  0  0  0  0  0  0  0  0  0  0
   50.0050   40.3930   26.8750 H   0  0  0  0  0  0  0  0  0  0  0  0
   46.4380   38.3500   24.0890 H   0  0  0  0  0  0  0  0  0  0  0  0
   50.1520   38.0310   26.2370 H   0  0  0  0  0  0  0  0  0  0  0  0
   47.3230   43.7350   24.9010 H   0  0  0  0  0  0  0  0  0  0  0  0
  1  3  1  0  0  0  0
  1 19  1  1  0  0  0
  3  4  1  0  0  0  0
  4  6  2  0  0  0  0
  4  2  1  0  0  0  0
  5  7  1  0  0  0  0
  5  3  2  0  0  0  0
  6 21  1  0  0  0  0
  7  8  2  0  0  0  0
  8 23  1  0  0  0  0
  8  6  1  0  0  0  0
  9 15  1  0  0  0  0
 10 12  1  0  0  0  0
 10  1  1  0  0  0  0
 11 10  2  0  0  0  0
 12 25  1  0  0  0  0
 13 11  1  0  0  0  0
 13 15  2  0  0  0  0
 14 27  1  0  0  0  0
 14 12  2  0  0  0  0
 15 14  1  0  0  0  0
 17 18  1  0  0  0  0
 18 16  1  0  0  0  0
 18  1  1  0  0  0  0
 20  5  1  0  0  0  0
 22  7  1  0  0  0  0
 24 11  1  0  0  0  0
 26 13  1  0  0  0  0
 28 18  1  0  0  0  0
M  END
$$$$

REMARK from dok file => REMARK Cluster   9 of Poses:  1 Score: -3.78 kcal/mol
 OpenBabel07182423433D

 28 29  0  0  1  0  0  0  0  0999 V2000
   55.3670   45.4080   28.9810 C   0  0  1  0  0  0  0  0  0  0  0  0
   54.9680   42.3550   28.2920 Cl  0  0  0  0  0  0  0  0  0  0  0  0
   54.0600   44.9620   28.3050 C   0  0  0  0  0  0  0  0  0  0  0  0
   53.8350   43.6160   27.9460 C   0  0  0  0  0  0  0  0  0  0  0  0
   53.0530   45.8930   27.9810 C   0  0  0  0  0  0  0  0  0  0  0  0
   52.6590   43.2300   27.2890 C   0  0  0  0  0  0  0  0  0  0  0  0
   51.8750   45.5030   27.3390 C   0  0  0  0  0  0  0  0  0  0  0  0
   51.6810   44.1700   26.9850 C   0  0  0  0  0  0  0  0  0  0  0  0
   58.4760   49.5810   25.8800 Cl  0  0  0  0  0  0  0  0  0  0  0  0
   56.1040   46.4360   28.1080 C   0  0  0  0  0  0  0  0  0  0  0  0
   57.4240   46.1840   27.7010 C   0  0  0  0  0  0  0  0  0  0  0  0
   55.5110   47.6600   27.7520 C   0  0  0  0  0  0  0  0  0  0  0  0
   58.1510   47.1470   26.9970 C   0  0  0  0  0  0  0  0  0  0  0  0
   56.2440   48.6270   27.0570 C   0  0  0  0  0  0  0  0  0  0  0  0
   57.5630   48.3710   26.6930 C   0  0  0  0  0  0  0  0  0  0  0  0
   54.3630   44.7420   31.4920 Cl  0  0  0  0  0  0  0  0  0  0  0  0
   56.8430   46.1990   31.2120 Cl  0  0  0  0  0  0  0  0  0  0  0  0
   55.2360   45.9130   30.4510 C   0  0  0  0  0  0  0  0  0  0  0  0
   56.0080   44.5200   29.0620 H   0  0  0  0  0  0  0  0  0  0  0  0
   53.1570   46.9490   28.2250 H   0  0  0  0  0  0  0  0  0  0  0  0
   52.5020   42.1910   27.0110 H   0  0  0  0  0  0  0  0  0  0  0  0
   51.1080   46.2390   27.1080 H   0  0  0  0  0  0  0  0  0  0  0  0
   50.7700   43.8660   26.4770 H   0  0  0  0  0  0  0  0  0  0  0  0
   57.9120   45.2430   27.9480 H   0  0  0  0  0  0  0  0  0  0  0  0
   54.4850   47.8910   28.0250 H   0  0  0  0  0  0  0  0  0  0  0  0
   59.1780   46.9410   26.7070 H   0  0  0  0  0  0  0  0  0  0  0  0
   55.7840   49.5820   26.8160 H   0  0  0  0  0  0  0  0  0  0  0  0
   54.6980   46.8630   30.5170 H   0  0  0  0  0  0  0  0  0  0  0  0
  1 19  1  1  0  0  0
  1 18  1  0  0  0  0
  3  1  1  0  0  0  0
  4  2  1  0  0  0  0
  4  3  2  0  0  0  0
  5 20  1  0  0  0  0
  5  3  1  0  0  0  0
  6  4  1  0  0  0  0
  7  5  2  0  0  0  0
  8  6  2  0  0  0  0
  8  7  1  0  0  0  0
  9 15  1  0  0  0  0
 10  1  1  0  0  0  0
 11 24  1  0  0  0  0
 11 10  2  0  0  0  0
 12 25  1  0  0  0  0
 12 10  1  0  0  0  0
 13 11  1  0  0  0  0
 14 12  2  0  0  0  0
 15 13  2  0  0  0  0
 15 14  1  0  0  0  0
 18 28  1  0  0  0  0
 18 17  1  0  0  0  0
 18 16  1  0  0  0  0
 21  6  1  0  0  0  0
 22  7  1  0  0  0  0
 23  8  1  0  0  0  0
 26 13  1  0  0  0  0
 27 14  1  0  0  0  0
M  END
$$$$

REMARK from dok file => REMARK Cluster  10 of Poses:  1 Score: -3.73 kcal/mol
 OpenBabel07182423433D

 28 29  0  0  1  0  0  0  0  0999 V2000
   48.6940   41.8900   25.9690 C   0  0  1  0  0  0  0  0  0  0  0  0
   48.7660   41.5500   22.8320 Cl  0  0  0  0  0  0  0  0  0  0  0  0
   48.8800   40.4830   25.3760 C   0  0  0  0  0  0  0  0  0  0  0  0
   48.8910   40.2630   23.9820 C   0  0  0  0  0  0  0  0  0  0  0  0
   49.0050   39.3530   26.2090 C   0  0  0  0  0  0  0  0  0  0  0  0
   49.0150   38.9710   23.4560 C   0  0  0  0  0  0  0  0  0  0  0  0
   49.1430   38.0670   25.6810 C   0  0  0  0  0  0  0  0  0  0  0  0
   49.1410   37.8740   24.3020 C   0  0  0  0  0  0  0  0  0  0  0  0
   43.6090   42.6090   29.1810 Cl  0  0  0  0  0  0  0  0  0  0  0  0
   47.3880   41.9690   26.7750 C   0  0  0  0  0  0  0  0  0  0  0  0
   46.2210   42.4520   26.1620 C   0  0  0  0  0  0  0  0  0  0  0  0
   47.3410   41.6250   28.1380 C   0  0  0  0  0  0  0  0  0  0  0  0
   45.0490   42.6320   26.9000 C   0  0  0  0  0  0  0  0  0  0  0  0
   46.1700   41.8170   28.8760 C   0  0  0  0  0  0  0  0  0  0  0  0
   45.0330   42.3300   28.2580 C   0  0  0  0  0  0  0  0  0  0  0  0
   51.4580   42.2360   25.9370 Cl  0  0  0  0  0  0  0  0  0  0  0  0
   49.7180   44.2040   27.1430 Cl  0  0  0  0  0  0  0  0  0  0  0  0
   49.8960   42.4460   26.7930 C   0  0  0  0  0  0  0  0  0  0  0  0
   48.6060   42.5870   25.1250 H   0  0  0  0  0  0  0  0  0  0  0  0
   49.0030   39.4440   27.2940 H   0  0  0  0  0  0  0  0  0  0  0  0
   49.0150   38.8150   22.3800 H   0  0  0  0  0  0  0  0  0  0  0  0
   49.2480   37.2110   26.3440 H   0  0  0  0  0  0  0  0  0  0  0  0
   49.2380   36.8740   23.8890 H   0  0  0  0  0  0  0  0  0  0  0  0
   46.2160   42.7170   25.1060 H   0  0  0  0  0  0  0  0  0  0  0  0
   48.2130   41.2270   28.6490 H   0  0  0  0  0  0  0  0  0  0  0  0
   44.1600   43.0250   26.4120 H   0  0  0  0  0  0  0  0  0  0  0  0
   46.1570   41.5790   29.9370 H   0  0  0  0  0  0  0  0  0  0  0  0
   49.9950   41.9540   27.7650 H   0  0  0  0  0  0  0  0  0  0  0  0
  1 19  1  6  0  0  0
  1 10  1  0  0  0  0
  1 18  1  0  0  0  0
  2  4  1  0  0  0  0
  3  1  1  0  0  0  0
  3  5  1  0  0  0  0
  4  3  2  0  0  0  0
  5 20  1  0  0  0  0
  6  4  1  0  0  0  0
  6  8  2  0  0  0  0
  7  5  2  0  0  0  0
  7 22  1  0  0  0  0
  8  7  1  0  0  0  0
 10 12  1  0  0  0  0
 11 10  2  0  0  0  0
 11 13  1  0  0  0  0
 12 25  1  0  0  0  0
 12 14  2  0  0  0  0
 13 15  2  0  0  0  0
 14 27  1  0  0  0  0
 15 14  1  0  0  0  0
 15  9  1  0  0  0  0
 16 18  1  0  0  0  0
 18 17  1  0  0  0  0
 18 28  1  0  0  0  0
 21  6  1  0  0  0  0
 23  8  1  0  0  0  0
 24 11  1  0  0  0  0
 26 13  1  0  0  0  0
M  END
$$$$

REMARK from dok file => REMARK Cluster  11 of Poses:  1 Score: -3.55 kcal/mol
 OpenBabel07182423433D

 28 29  0  0  1  0  0  0  0  0999 V2000
   48.9930   42.7990   25.9320 C   0  0  1  0  0  0  0  0  0  0  0  0
   49.1690   39.7480   26.7150 Cl  0  0  0  0  0  0  0  0  0  0  0  0
   49.0490   41.7450   24.8140 C   0  0  0  0  0  0  0  0  0  0  0  0
   49.1580   40.3680   25.1000 C   0  0  0  0  0  0  0  0  0  0  0  0
   49.0350   42.1240   23.4560 C   0  0  0  0  0  0  0  0  0  0  0  0
   49.2550   39.4220   24.0720 C   0  0  0  0  0  0  0  0  0  0  0  0
   49.1170   41.1760   22.4330 C   0  0  0  0  0  0  0  0  0  0  0  0
   49.2350   39.8230   22.7400 C   0  0  0  0  0  0  0  0  0  0  0  0
   43.7680   41.9920   28.8900 Cl  0  0  0  0  0  0  0  0  0  0  0  0
   47.6690   42.6970   26.7070 C   0  0  0  0  0  0  0  0  0  0  0  0
   47.6590   42.1320   27.9930 C   0  0  0  0  0  0  0  0  0  0  0  0
   46.4490   43.0990   26.1380 C   0  0  0  0  0  0  0  0  0  0  0  0
   46.4560   41.9320   28.6750 C   0  0  0  0  0  0  0  0  0  0  0  0
   45.2460   42.8870   26.8180 C   0  0  0  0  0  0  0  0  0  0  0  0
   45.2540   42.2950   28.0770 C   0  0  0  0  0  0  0  0  0  0  0  0
   51.7630   42.5340   26.0540 Cl  0  0  0  0  0  0  0  0  0  0  0  0
   50.3630   44.4060   27.7550 Cl  0  0  0  0  0  0  0  0  0  0  0  0
   50.2110   42.8250   26.9060 C   0  0  0  0  0  0  0  0  0  0  0  0
   49.0190   43.7850   25.4480 H   0  0  0  0  0  0  0  0  0  0  0  0
   48.9550   43.1680   23.1580 H   0  0  0  0  0  0  0  0  0  0  0  0
   49.3460   38.3640   24.3060 H   0  0  0  0  0  0  0  0  0  0  0  0
   49.0950   41.4920   21.3920 H   0  0  0  0  0  0  0  0  0  0  0  0
   49.3090   39.0860   21.9460 H   0  0  0  0  0  0  0  0  0  0  0  0
   48.5860   41.8200   28.4710 H   0  0  0  0  0  0  0  0  0  0  0  0
   46.4090   43.5600   25.1550 H   0  0  0  0  0  0  0  0  0  0  0  0
   46.4670   41.4760   29.6620 H   0  0  0  0  0  0  0  0  0  0  0  0
   44.3060   43.1730   26.3520 H   0  0  0  0  0  0  0  0  0  0  0  0
   50.1310   42.0680   27.6910 H   0  0  0  0  0  0  0  0  0  0  0  0
  1 19  1  6  0  0  0
  1 10  1  0  0  0  0
  1 18  1  0  0  0  0
  3  4  1  0  0  0  0
  3  1  1  0  0  0  0
  4  2  1  0  0  0  0
  5  3  2  0  0  0  0
  6 21  1  0  0  0  0
  6  4  2  0  0  0  0
  7  8  2  0  0  0  0
  7  5  1  0  0  0  0
  8  6  1  0  0  0  0
 10 11  1  0  0  0  0
 11 24  1  0  0  0  0
 11 13  2  0  0  0  0
 12 10  2  0  0  0  0
 12 14  1  0  0  0  0
 13 26  1  0  0  0  0
 14 15  2  0  0  0  0
 15 13  1  0  0  0  0
 15  9  1  0  0  0  0
 16 18  1  0  0  0  0
 18 28  1  0  0  0  0
 18 17  1  0  0  0  0
 20  5  1  0  0  0  0
 22  7  1  0  0  0  0
 23  8  1  0  0  0  0
 25 12  1  0  0  0  0
 27 14  1  0  0  0  0
M  END
$$$$

REMARK from dok file => REMARK Cluster  12 of Poses:  1 Score: -3.55 kcal/mol
 OpenBabel07182423433D

 28 29  0  0  1  0  0  0  0  0999 V2000
   49.4720   42.0860   26.8800 C   0  0  1  0  0  0  0  0  0  0  0  0
   48.9580   41.8650   23.7740 Cl  0  0  0  0  0  0  0  0  0  0  0  0
   49.9160   43.2410   25.9670 C   0  0  0  0  0  0  0  0  0  0  0  0
   49.7410   43.1880   24.5680 C   0  0  0  0  0  0  0  0  0  0  0  0
   50.5560   44.3810   26.4950 C   0  0  0  0  0  0  0  0  0  0  0  0
   50.1920   44.2270   23.7430 C   0  0  0  0  0  0  0  0  0  0  0  0
   50.9920   45.4220   25.6710 C   0  0  0  0  0  0  0  0  0  0  0  0
   50.8170   45.3420   24.2920 C   0  0  0  0  0  0  0  0  0  0  0  0
   43.5680   42.7790   28.0450 Cl  0  0  0  0  0  0  0  0  0  0  0  0
   47.9610   42.1610   27.1500 C   0  0  0  0  0  0  0  0  0  0  0  0
   47.1140   42.7630   26.2050 C   0  0  0  0  0  0  0  0  0  0  0  0
   47.4030   41.6940   28.3540 C   0  0  0  0  0  0  0  0  0  0  0  0
   45.7540   42.9370   26.4730 C   0  0  0  0  0  0  0  0  0  0  0  0
   46.0440   41.8800   28.6240 C   0  0  0  0  0  0  0  0  0  0  0  0
   45.2290   42.5100   27.6890 C   0  0  0  0  0  0  0  0  0  0  0  0
   51.6690   40.4390   26.4110 Cl  0  0  0  0  0  0  0  0  0  0  0  0
   49.2070   39.3770   27.4890 Cl  0  0  0  0  0  0  0  0  0  0  0  0
   49.8880   40.6550   26.4190 C   0  0  0  0  0  0  0  0  0  0  0  0
   49.9890   42.2160   27.8400 H   0  0  0  0  0  0  0  0  0  0  0  0
   50.7280   44.4910   27.5640 H   0  0  0  0  0  0  0  0  0  0  0  0
   50.0570   44.1700   22.6660 H   0  0  0  0  0  0  0  0  0  0  0  0
   51.4740   46.2960   26.1030 H   0  0  0  0  0  0  0  0  0  0  0  0
   51.1640   46.1450   23.6490 H   0  0  0  0  0  0  0  0  0  0  0  0
   47.5070   43.1250   25.2570 H   0  0  0  0  0  0  0  0  0  0  0  0
   48.0150   41.2030   29.1050 H   0  0  0  0  0  0  0  0  0  0  0  0
   45.1180   43.4220   25.7370 H   0  0  0  0  0  0  0  0  0  0  0  0
   45.6330   41.5440   29.5730 H   0  0  0  0  0  0  0  0  0  0  0  0
   49.5330   40.4240   25.4110 H   0  0  0  0  0  0  0  0  0  0  0  0
  1 10  1  0  0  0  0
  1 19  1  1  0  0  0
  2  4  1  0  0  0  0
  3  5  1  0  0  0  0
  3  1  1  0  0  0  0
  4  3  2  0  0  0  0
  5 20  1  0  0  0  0
  6  8  2  0  0  0  0
  6  4  1  0  0  0  0
  7 22  1  0  0  0  0
  7  5  2  0  0  0  0
  8  7  1  0  0  0  0
 10 12  1  0  0  0  0
 11 13  1  0  0  0  0
 11 10  2  0  0  0  0
 12 14  2  0  0  0  0
 12 25  1  0  0  0  0
 13 15  2  0  0  0  0
 14 27  1  0  0  0  0
 15  9  1  0  0  0  0
 15 14  1  0  0  0  0
 16 18  1  0  0  0  0
 18  1  1  0  0  0  0
 18 17  1  0  0  0  0
 21  6  1  0  0  0  0
 23  8  1  0  0  0  0
 24 11  1  0  0  0  0
 26 13  1  0  0  0  0
 28 18  1  0  0  0  0
M  END
$$$$

REMARK from dok file => REMARK Cluster  13 of Poses:  1 Score: -3.53 kcal/mol
 OpenBabel07182423433D

 28 29  0  0  1  0  0  0  0  0999 V2000
   49.3330   41.4500   26.7820 C   0  0  1  0  0  0  0  0  0  0  0  0
   52.4260   40.9210   26.4540 Cl  0  0  0  0  0  0  0  0  0  0  0  0
   50.2960   42.6480   26.7740 C   0  0  0  0  0  0  0  0  0  0  0  0
   51.6920   42.4740   26.6600 C   0  0  0  0  0  0  0  0  0  0  0  0
   49.8200   43.9660   26.9220 C   0  0  0  0  0  0  0  0  0  0  0  0
   52.5620   43.5710   26.7000 C   0  0  0  0  0  0  0  0  0  0  0  0
   50.6890   45.0600   26.9470 C   0  0  0  0  0  0  0  0  0  0  0  0
   52.0640   44.8620   26.8440 C   0  0  0  0  0  0  0  0  0  0  0  0
   43.5730   42.8650   28.0130 Cl  0  0  0  0  0  0  0  0  0  0  0  0
   47.9040   41.9070   27.1150 C   0  0  0  0  0  0  0  0  0  0  0  0
   47.3380   41.5730   28.3560 C   0  0  0  0  0  0  0  0  0  0  0  0
   47.1170   42.6040   26.1810 C   0  0  0  0  0  0  0  0  0  0  0  0
   46.0060   41.8850   28.6410 C   0  0  0  0  0  0  0  0  0  0  0  0
   45.7810   42.9050   26.4650 C   0  0  0  0  0  0  0  0  0  0  0  0
   45.2290   42.5350   27.6870 C   0  0  0  0  0  0  0  0  0  0  0  0
   48.1770   39.2000   25.6150 Cl  0  0  0  0  0  0  0  0  0  0  0  0
   48.9480   41.4830   24.0200 Cl  0  0  0  0  0  0  0  0  0  0  0  0
   49.3510   40.5510   25.5070 C   0  0  0  0  0  0  0  0  0  0  0  0
   49.6620   40.7770   27.5860 H   0  0  0  0  0  0  0  0  0  0  0  0
   48.7560   44.1780   27.0180 H   0  0  0  0  0  0  0  0  0  0  0  0
   53.6360   43.4230   26.6190 H   0  0  0  0  0  0  0  0  0  0  0  0
   50.2970   46.0680   27.0530 H   0  0  0  0  0  0  0  0  0  0  0  0
   52.7430   45.7090   26.8730 H   0  0  0  0  0  0  0  0  0  0  0  0
   47.9200   41.0440   29.1080 H   0  0  0  0  0  0  0  0  0  0  0  0
   47.5180   42.9020   25.2170 H   0  0  0  0  0  0  0  0  0  0  0  0
   45.5800   41.6020   29.6000 H   0  0  0  0  0  0  0  0  0  0  0  0
   45.1740   43.4160   25.7210 H   0  0  0  0  0  0  0  0  0  0  0  0
   50.3340   40.1070   25.3270 H   0  0  0  0  0  0  0  0  0  0  0  0
  1 10  1  0  0  0  0
  1 19  1  1  0  0  0
  2  4  1  0  0  0  0
  3  1  1  0  0  0  0
  3  5  1  0  0  0  0
  4  6  1  0  0  0  0
  4  3  2  0  0  0  0
  5  7  2  0  0  0  0
  5 20  1  0  0  0  0
  6  8  2  0  0  0  0
  7 22  1  0  0  0  0
  8 23  1  0  0  0  0
  8  7  1  0  0  0  0
 10 11  1  0  0  0  0
 11 13  2  0  0  0  0
 11 24  1  0  0  0  0
 12 14  1  0  0  0  0
 12 10  2  0  0  0  0
 13 26  1  0  0  0  0
 14 15  2  0  0  0  0
 15  9  1  0  0  0  0
 15 13  1  0  0  0  0
 17 18  1  0  0  0  0
 18 16  1  0  0  0  0
 18  1  1  0  0  0  0
 21  6  1  0  0  0  0
 25 12  1  0  0  0  0
 27 14  1  0  0  0  0
 28 18  1  0  0  0  0
M  END
$$$$

REMARK from dok file => REMARK Cluster  14 of Poses:  1 Score: -3.68 kcal/mol
 OpenBabel07182423433D

 28 29  0  0  1  0  0  0  0  0999 V2000
   48.7330   41.1230   25.9040 C   0  0  1  0  0  0  0  0  0  0  0  0
   50.3530   43.6120   26.9700 Cl  0  0  0  0  0  0  0  0  0  0  0  0
   49.2250   42.1780   24.8990 C   0  0  0  0  0  0  0  0  0  0  0  0
   49.9280   43.3270   25.3170 C   0  0  0  0  0  0  0  0  0  0  0  0
   48.9520   42.0540   23.5210 C   0  0  0  0  0  0  0  0  0  0  0  0
   50.3290   44.3040   24.3970 C   0  0  0  0  0  0  0  0  0  0  0  0
   49.3660   43.0230   22.6040 C   0  0  0  0  0  0  0  0  0  0  0  0
   50.0500   44.1540   23.0420 C   0  0  0  0  0  0  0  0  0  0  0  0
   43.6280   42.6590   28.7800 Cl  0  0  0  0  0  0  0  0  0  0  0  0
   47.4690   41.6130   26.6280 C   0  0  0  0  0  0  0  0  0  0  0  0
   47.3620   41.4590   28.0200 C   0  0  0  0  0  0  0  0  0  0  0  0
   46.3820   42.1610   25.9250 C   0  0  0  0  0  0  0  0  0  0  0  0
   46.1830   41.7990   28.6870 C   0  0  0  0  0  0  0  0  0  0  0  0
   45.1990   42.4900   26.5940 C   0  0  0  0  0  0  0  0  0  0  0  0
   45.1010   42.2980   27.9680 C   0  0  0  0  0  0  0  0  0  0  0  0
   48.9830   38.4190   26.5260 Cl  0  0  0  0  0  0  0  0  0  0  0  0
   46.8200   39.3780   24.8660 Cl  0  0  0  0  0  0  0  0  0  0  0  0
   48.5310   39.6840   25.3370 C   0  0  0  0  0  0  0  0  0  0  0  0
   49.5230   41.0030   26.6580 H   0  0  0  0  0  0  0  0  0  0  0  0
   48.4120   41.1960   23.1250 H   0  0  0  0  0  0  0  0  0  0  0  0
   50.8640   45.1890   24.7340 H   0  0  0  0  0  0  0  0  0  0  0  0
   49.1530   42.9000   21.5450 H   0  0  0  0  0  0  0  0  0  0  0  0
   50.3650   44.9130   22.3320 H   0  0  0  0  0  0  0  0  0  0  0  0
   48.1870   41.0490   28.6000 H   0  0  0  0  0  0  0  0  0  0  0  0
   46.4270   42.3190   24.8510 H   0  0  0  0  0  0  0  0  0  0  0  0
   46.1120   41.6550   29.7630 H   0  0  0  0  0  0  0  0  0  0  0  0
   44.3550   42.8820   26.0330 H   0  0  0  0  0  0  0  0  0  0  0  0
   49.1270   39.5050   24.4380 H   0  0  0  0  0  0  0  0  0  0  0  0
  1 10  1  0  0  0  0
  1 19  1  1  0  0  0
  3  4  1  0  0  0  0
  3  1  1  0  0  0  0
  4  2  1  0  0  0  0
  5  3  2  0  0  0  0
  6 21  1  0  0  0  0
  6  4  2  0  0  0  0
  7  8  2  0  0  0  0
  7  5  1  0  0  0  0
  8  6  1  0  0  0  0
 10 11  1  0  0  0  0
 11 24  1  0  0  0  0
 11 13  2  0  0  0  0
 12 14  1  0  0  0  0
 12 10  2  0  0  0  0
 13 26  1  0  0  0  0
 14 15  2  0  0  0  0
 15 13  1  0  0  0  0
 15  9  1  0  0  0  0
 17 18  1  0  0  0  0
 18  1  1  0  0  0  0
 18 16  1  0  0  0  0
 20  5  1  0  0  0  0
 22  7  1  0  0  0  0
 23  8  1  0  0  0  0
 25 12  1  0  0  0  0
 27 14  1  0  0  0  0
 28 18  1  0  0  0  0
M  END
$$$$

REMARK from dok file => REMARK Cluster  15 of Poses:  1 Score: -3.51 kcal/mol
 OpenBabel07182423433D

 28 29  0  0  1  0  0  0  0  0999 V2000
   46.8010   41.4440   26.9560 C   0  0  1  0  0  0  0  0  0  0  0  0
   49.5390   39.8780   27.0630 Cl  0  0  0  0  0  0  0  0  0  0  0  0
   46.9940   40.2180   26.0480 C   0  0  0  0  0  0  0  0  0  0  0  0
   48.2050   39.4950   26.0290 C   0  0  0  0  0  0  0  0  0  0  0  0
   45.9770   39.7960   25.1680 C   0  0  0  0  0  0  0  0  0  0  0  0
   48.3840   38.4070   25.1640 C   0  0  0  0  0  0  0  0  0  0  0  0
   46.1530   38.7030   24.3170 C   0  0  0  0  0  0  0  0  0  0  0  0
   47.3620   38.0110   24.3090 C   0  0  0  0  0  0  0  0  0  0  0  0
   51.1230   45.4310   25.4990 Cl  0  0  0  0  0  0  0  0  0  0  0  0
   47.8350   42.5310   26.6230 C   0  0  0  0  0  0  0  0  0  0  0  0
   47.9890   42.9610   25.2950 C   0  0  0  0  0  0  0  0  0  0  0  0
   48.6800   43.0710   27.6080 C   0  0  0  0  0  0  0  0  0  0  0  0
   48.9920   43.8710   24.9500 C   0  0  0  0  0  0  0  0  0  0  0  0
   49.6900   43.9720   27.2590 C   0  0  0  0  0  0  0  0  0  0  0  0
   49.8490   44.3590   25.9320 C   0  0  0  0  0  0  0  0  0  0  0  0
   44.6610   41.9910   28.6530 Cl  0  0  0  0  0  0  0  0  0  0  0  0
   45.3180   43.7550   26.4590 Cl  0  0  0  0  0  0  0  0  0  0  0  0
   45.3590   42.0380   27.0010 C   0  0  0  0  0  0  0  0  0  0  0  0
   46.9850   41.1150   27.9870 H   0  0  0  0  0  0  0  0  0  0  0  0
   45.0160   40.3060   25.1250 H   0  0  0  0  0  0  0  0  0  0  0  0
   49.3260   37.8630   25.1550 H   0  0  0  0  0  0  0  0  0  0  0  0
   45.3500   38.3900   23.6540 H   0  0  0  0  0  0  0  0  0  0  0  0
   47.5050   37.1660   23.6410 H   0  0  0  0  0  0  0  0  0  0  0  0
   47.3450   42.5750   24.5070 H   0  0  0  0  0  0  0  0  0  0  0  0
   48.5840   42.7850   28.6520 H   0  0  0  0  0  0  0  0  0  0  0  0
   49.1080   44.1770   23.9140 H   0  0  0  0  0  0  0  0  0  0  0  0
   50.3590   44.3570   28.0260 H   0  0  0  0  0  0  0  0  0  0  0  0
   44.6680   41.4990   26.3470 H   0  0  0  0  0  0  0  0  0  0  0  0
  1 18  1  0  0  0  0
  1 19  1  1  0  0  0
  3  1  1  0  0  0  0
  4  3  1  0  0  0  0
  4  2  1  0  0  0  0
  5  3  2  0  0  0  0
  6  4  2  0  0  0  0
  7  5  1  0  0  0  0
  8  7  2  0  0  0  0
  8  6  1  0  0  0  0
  9 15  1  0  0  0  0
 10  1  1  0  0  0  0
 10 12  1  0  0  0  0
 11 10  2  0  0  0  0
 12 25  1  0  0  0  0
 13 11  1  0  0  0  0
 13 15  2  0  0  0  0
 14 12  2  0  0  0  0
 14 27  1  0  0  0  0
 15 14  1  0  0  0  0
 17 18  1  0  0  0  0
 18 16  1  0  0  0  0
 20  5  1  0  0  0  0
 21  6  1  0  0  0  0
 22  7  1  0  0  0  0
 23  8  1  0  0  0  0
 24 11  1  0  0  0  0
 26 13  1  0  0  0  0
 28 18  1  0  0  0  0
M  END
$$$$

REMARK from dok file => REMARK Cluster  16 of Poses:  1 Score: -3.42 kcal/mol
 OpenBabel07182423433D

 28 29  0  0  1  0  0  0  0  0999 V2000
   48.8190   41.9900   26.0740 C   0  0  1  0  0  0  0  0  0  0  0  0
   49.0470   42.2240   22.9360 Cl  0  0  0  0  0  0  0  0  0  0  0  0
   48.9210   40.7040   25.2370 C   0  0  0  0  0  0  0  0  0  0  0  0
   48.9960   40.7430   23.8280 C   0  0  0  0  0  0  0  0  0  0  0  0
   48.9020   39.4340   25.8480 C   0  0  0  0  0  0  0  0  0  0  0  0
   49.0420   39.5630   23.0750 C   0  0  0  0  0  0  0  0  0  0  0  0
   48.9620   38.2590   25.0940 C   0  0  0  0  0  0  0  0  0  0  0  0
   49.0250   38.3230   23.7040 C   0  0  0  0  0  0  0  0  0  0  0  0
   43.5930   42.6030   29.0750 Cl  0  0  0  0  0  0  0  0  0  0  0  0
   47.4790   42.0420   26.8240 C   0  0  0  0  0  0  0  0  0  0  0  0
   46.3350   42.5300   26.1710 C   0  0  0  0  0  0  0  0  0  0  0  0
   47.3740   41.6690   28.1750 C   0  0  0  0  0  0  0  0  0  0  0  0
   45.1300   42.6860   26.8600 C   0  0  0  0  0  0  0  0  0  0  0  0
   46.1700   41.8370   28.8660 C   0  0  0  0  0  0  0  0  0  0  0  0
   45.0580   42.3540   28.2090 C   0  0  0  0  0  0  0  0  0  0  0  0
   51.5910   41.8390   26.3060 Cl  0  0  0  0  0  0  0  0  0  0  0  0
   50.1050   44.0070   27.5100 Cl  0  0  0  0  0  0  0  0  0  0  0  0
   50.0120   42.2700   27.0400 C   0  0  0  0  0  0  0  0  0  0  0  0
   48.8410   42.8350   25.3730 H   0  0  0  0  0  0  0  0  0  0  0  0
   48.8430   39.3250   26.9300 H   0  0  0  0  0  0  0  0  0  0  0  0
   49.0920   39.6070   21.9890 H   0  0  0  0  0  0  0  0  0  0  0  0
   48.9560   37.2910   25.5890 H   0  0  0  0  0  0  0  0  0  0  0  0
   49.0630   37.4110   23.1160 H   0  0  0  0  0  0  0  0  0  0  0  0
   46.3740   42.8180   25.1210 H   0  0  0  0  0  0  0  0  0  0  0  0
   48.2260   41.2660   28.7160 H   0  0  0  0  0  0  0  0  0  0  0  0
   44.2610   43.0830   26.3420 H   0  0  0  0  0  0  0  0  0  0  0  0
   46.1130   41.5750   29.9200 H   0  0  0  0  0  0  0  0  0  0  0  0
   49.9300   41.7090   27.9750 H   0  0  0  0  0  0  0  0  0  0  0  0
  1 19  1  6  0  0  0
  1 10  1  0  0  0  0
  1 18  1  0  0  0  0
  2  4  1  0  0  0  0
  3  5  1  0  0  0  0
  3  1  1  0  0  0  0
  4  3  2  0  0  0  0
  5 20  1  0  0  0  0
  6  8  2  0  0  0  0
  6  4  1  0  0  0  0
  7 22  1  0  0  0  0
  7  5  2  0  0  0  0
  8  7  1  0  0  0  0
 10 12  1  0  0  0  0
 11 10  2  0  0  0  0
 11 13  1  0  0  0  0
 12 25  1  0  0  0  0
 12 14  2  0  0  0  0
 13 15  2  0  0  0  0
 14 27  1  0  0  0  0
 15 14  1  0  0  0  0
 15  9  1  0  0  0  0
 16 18  1  0  0  0  0
 18 17  1  0  0  0  0
 18 28  1  0  0  0  0
 21  6  1  0  0  0  0
 23  8  1  0  0  0  0
 24 11  1  0  0  0  0
 26 13  1  0  0  0  0
M  END
$$$$

REMARK from dok file => REMARK Cluster  17 of Poses:  1 Score: -3.13 kcal/mol
 OpenBabel07182423433D

 28 29  0  0  1  0  0  0  0  0999 V2000
   55.9410   40.7780   26.7200 C   0  0  1  0  0  0  0  0  0  0  0  0
   57.3560   42.3850   29.0380 Cl  0  0  0  0  0  0  0  0  0  0  0  0
   55.2180   41.9860   27.3380 C   0  0  0  0  0  0  0  0  0  0  0  0
   55.7860   42.7260   28.3970 C   0  0  0  0  0  0  0  0  0  0  0  0
   53.9370   42.3740   26.8940 C   0  0  0  0  0  0  0  0  0  0  0  0
   55.0960   43.7960   28.9820 C   0  0  0  0  0  0  0  0  0  0  0  0
   53.2580   43.4500   27.4700 C   0  0  0  0  0  0  0  0  0  0  0  0
   53.8350   44.1580   28.5220 C   0  0  0  0  0  0  0  0  0  0  0  0
   55.9990   36.1860   30.6690 Cl  0  0  0  0  0  0  0  0  0  0  0  0
   55.8790   39.5690   27.6650 C   0  0  0  0  0  0  0  0  0  0  0  0
   55.2340   39.6890   28.9070 C   0  0  0  0  0  0  0  0  0  0  0  0
   56.5070   38.3510   27.3470 C   0  0  0  0  0  0  0  0  0  0  0  0
   55.2550   38.6380   29.8270 C   0  0  0  0  0  0  0  0  0  0  0  0
   56.5360   37.3060   28.2750 C   0  0  0  0  0  0  0  0  0  0  0  0
   55.9200   37.4570   29.5130 C   0  0  0  0  0  0  0  0  0  0  0  0
   56.7690   39.4670   24.4060 Cl  0  0  0  0  0  0  0  0  0  0  0  0
   54.0170   39.3600   25.2820 Cl  0  0  0  0  0  0  0  0  0  0  0  0
   55.4980   40.3850   25.2770 C   0  0  0  0  0  0  0  0  0  0  0  0
   56.9970   41.0580   26.6060 H   0  0  0  0  0  0  0  0  0  0  0  0
   53.4350   41.8490   26.0830 H   0  0  0  0  0  0  0  0  0  0  0  0
   55.5420   44.3530   29.8030 H   0  0  0  0  0  0  0  0  0  0  0  0
   52.2750   43.7360   27.1040 H   0  0  0  0  0  0  0  0  0  0  0  0
   53.3050   44.9900   28.9780 H   0  0  0  0  0  0  0  0  0  0  0  0
   54.7270   40.6120   29.1840 H   0  0  0  0  0  0  0  0  0  0  0  0
   57.0000   38.2040   26.3900 H   0  0  0  0  0  0  0  0  0  0  0  0
   54.7660   38.7570   30.7910 H   0  0  0  0  0  0  0  0  0  0  0  0
   57.0530   36.3820   28.0290 H   0  0  0  0  0  0  0  0  0  0  0  0
   55.2580   41.2580   24.6640 H   0  0  0  0  0  0  0  0  0  0  0  0
  1 19  1  6  0  0  0
  1  3  1  0  0  0  0
  1 10  1  0  0  0  0
  3  4  1  0  0  0  0
  4  6  2  0  0  0  0
  4  2  1  0  0  0  0
  5  3  2  0  0  0  0
  5  7  1  0  0  0  0
  6 21  1  0  0  0  0
  7  8  2  0  0  0  0
  8 23  1  0  0  0  0
  8  6  1  0  0  0  0
 10 11  1  0  0  0  0
 11 24  1  0  0  0  0
 11 13  2  0  0  0  0
 12 10  2  0  0  0  0
 12 14  1  0  0  0  0
 13 26  1  0  0  0  0
 14 15  2  0  0  0  0
 15 13  1  0  0  0  0
 15  9  1  0  0  0  0
 16 18  1  0  0  0  0
 18 17  1  0  0  0  0
 18  1  1  0  0  0  0
 20  5  1  0  0  0  0
 22  7  1  0  0  0  0
 25 12  1  0  0  0  0
 27 14  1  0  0  0  0
 28 18  1  0  0  0  0
M  END
$$$$

REMARK from dok file => REMARK Cluster  18 of Poses:  1 Score: -3.52 kcal/mol
 OpenBabel07182423433D

 28 29  0  0  1  0  0  0  0  0999 V2000
   48.9460   41.6240   26.3580 C   0  0  1  0  0  0  0  0  0  0  0  0
   52.0690   41.1800   26.2800 Cl  0  0  0  0  0  0  0  0  0  0  0  0
   49.8710   42.8510   26.3060 C   0  0  0  0  0  0  0  0  0  0  0  0
   51.2760   42.7180   26.2990 C   0  0  0  0  0  0  0  0  0  0  0  0
   49.3470   44.1590   26.3060 C   0  0  0  0  0  0  0  0  0  0  0  0
   52.1080   43.8450   26.2990 C   0  0  0  0  0  0  0  0  0  0  0  0
   50.1790   45.2810   26.2900 C   0  0  0  0  0  0  0  0  0  0  0  0
   51.5630   45.1240   26.2940 C   0  0  0  0  0  0  0  0  0  0  0  0
   43.3680   42.7700   28.4250 Cl  0  0  0  0  0  0  0  0  0  0  0  0
   47.5620   42.0130   26.9020 C   0  0  0  0  0  0  0  0  0  0  0  0
   47.1850   41.6120   28.1940 C   0  0  0  0  0  0  0  0  0  0  0  0
   46.6300   42.7130   26.1150 C   0  0  0  0  0  0  0  0  0  0  0  0
   45.8960   41.8620   28.6720 C   0  0  0  0  0  0  0  0  0  0  0  0
   45.3380   42.9520   26.5920 C   0  0  0  0  0  0  0  0  0  0  0  0
   44.9730   42.5160   27.8610 C   0  0  0  0  0  0  0  0  0  0  0  0
   47.5060   39.5900   25.1140 Cl  0  0  0  0  0  0  0  0  0  0  0  0
   48.4680   41.8700   23.6210 Cl  0  0  0  0  0  0  0  0  0  0  0  0
   48.8180   40.8100   25.0340 C   0  0  0  0  0  0  0  0  0  0  0  0
   49.3930   40.9120   27.0660 H   0  0  0  0  0  0  0  0  0  0  0  0
   48.2730   44.3410   26.3130 H   0  0  0  0  0  0  0  0  0  0  0  0
   53.1900   43.7280   26.3010 H   0  0  0  0  0  0  0  0  0  0  0  0
   49.7510   46.2810   26.2800 H   0  0  0  0  0  0  0  0  0  0  0  0
   52.2130   45.9950   26.2920 H   0  0  0  0  0  0  0  0  0  0  0  0
   47.8830   41.0790   28.8370 H   0  0  0  0  0  0  0  0  0  0  0  0
   46.8840   43.0620   25.1180 H   0  0  0  0  0  0  0  0  0  0  0  0
   45.6170   41.5280   29.6680 H   0  0  0  0  0  0  0  0  0  0  0  0
   44.6170   43.4650   25.9600 H   0  0  0  0  0  0  0  0  0  0  0  0
   49.7390   40.2730   24.7870 H   0  0  0  0  0  0  0  0  0  0  0  0
  1 10  1  0  0  0  0
  1 19  1  1  0  0  0
  2  4  1  0  0  0  0
  3  5  1  0  0  0  0
  3  1  1  0  0  0  0
  4  6  1  0  0  0  0
  4  3  2  0  0  0  0
  5 20  1  0  0  0  0
  6 21  1  0  0  0  0
  7  8  1  0  0  0  0
  7  5  2  0  0  0  0
  8  6  2  0  0  0  0
 10 11  1  0  0  0  0
 11 13  2  0  0  0  0
 11 24  1  0  0  0  0
 12 14  1  0  0  0  0
 12 10  2  0  0  0  0
 13 26  1  0  0  0  0
 14 15  2  0  0  0  0
 15  9  1  0  0  0  0
 15 13  1  0  0  0  0
 17 18  1  0  0  0  0
 18 16  1  0  0  0  0
 18  1  1  0  0  0  0
 22  7  1  0  0  0  0
 23  8  1  0  0  0  0
 25 12  1  0  0  0  0
 27 14  1  0  0  0  0
 28 18  1  0  0  0  0
M  END
$$$$

REMARK from dok file => REMARK Cluster  19 of Poses:  1 Score: -3.42 kcal/mol
 OpenBabel07182423433D

 28 28  0  0  1  0  0  0  0  0999 V2000
   58.1310   33.8080   28.0200 C   0  0  1  0  0  0  0  0  0  0  0  0
   58.5420   34.9910   25.1240 Cl  0  0  0  0  0  0  0  0  0  0  0  0
   57.3680   33.1780   26.8440 C   0  0  0  0  0  0  0  0  0  0  0  0
   57.4870   33.6810   25.5300 C   0  0  0  0  0  0  0  0  0  0  0  0
   56.4860   32.0960   27.0430 C   0  0  0  0  0  0  0  0  0  0  0  0
   56.7510   33.1270   24.4750 C   0  0  0  0  0  0  0  0  0  0  0  0
   55.7640   31.5370   25.9860 C   0  0  0  0  0  0  0  0  0  0  0  0
   55.8910   32.0570   24.7010 C   0  0  0  0  0  0  0  0  0  0  0  0
   54.6090   38.1490   30.3550 Cl  0  0  0  0  0  0  0  0  0  0  0  0
   57.3250   34.9650   28.6310 C   0  0  0  0  0  0  0  0  0  0  0  0
   56.8270   34.8510   29.9390 C   0  0  0  0  0  0  0  0  0  0  0  0
   57.0160   36.1200   27.8910 C   0  0  0  0  0  0  0  0  0  0  0  0
   56.0040   35.8430   30.4790 C   0  0  0  0  0  0  0  0  0  0  0  0
   56.1830   37.1050   28.4290 C   0  0  0  0  0  0  0  0  0  0  0  0
   55.6720   36.9570   29.7150 C   0  0  0  0  0  0  0  0  0  0  0  0
   60.0100   33.4690   30.0480 Cl  0  0  0  0  0  0  0  0  0  0  0  0
   57.3180   32.4520   30.3190 Cl  0  0  0  0  0 15  0  0  0  0  0  0
   58.6160   32.8190   29.1250 C   0  0  0  0  0  3  0  0  0  0  0  0
   59.0610   34.2290   27.6140 H   0  0  0  0  0  0  0  0  0  0  0  0
   56.3410   31.6570   28.0290 H   0  0  0  0  0  0  0  0  0  0  0  0
   56.8460   33.5290   23.4690 H   0  0  0  0  0  0  0  0  0  0  0  0
   55.0970   30.6960   26.1630 H   0  0  0  0  0  0  0  0  0  0  0  0
   55.3230   31.6300   23.8790 H   0  0  0  0  0  0  0  0  0  0  0  0
   57.0550   33.9770   30.5470 H   0  0  0  0  0  0  0  0  0  0  0  0
   57.3960   36.2620   26.8830 H   0  0  0  0  0  0  0  0  0  0  0  0
   55.6130   35.7280   31.4870 H   0  0  0  0  0  0  0  0  0  0  0  0
   55.9260   37.9770   27.8330 H   0  0  0  0  0  0  0  0  0  0  0  0
   58.9270   31.8560   28.7120 H   0  0  0  0  0  0  0  0  0  0  0  0
  1 19  1  6  0  0  0
  1 10  1  0  0  0  0
  1 18  1  0  0  0  0
  2  4  1  0  0  0  0
  3  5  1  0  0  0  0
  3  1  1  0  0  0  0
  4  3  2  0  0  0  0
  5 20  1  0  0  0  0
  6  8  2  0  0  0  0
  6  4  1  0  0  0  0
  7 22  1  0  0  0  0
  7  5  2  0  0  0  0
  8  7  1  0  0  0  0
 10 11  1  0  0  0  0
 11 13  2  0  0  0  0
 11 24  1  0  0  0  0
 12 14  1  0  0  0  0
 12 10  2  0  0  0  0
 13 26  1  0  0  0  0
 14 15  2  0  0  0  0
 15  9  1  0  0  0  0
 15 13  1  0  0  0  0
 18 16  1  0  0  0  0
 21  6  1  0  0  0  0
 23  8  1  0  0  0  0
 25 12  1  0  0  0  0
 27 14  1  0  0  0  0
 28 18  1  0  0  0  0
M  END
$$$$

REMARK from dok file => REMARK Cluster  20 of Poses:  1 Score: -3.36 kcal/mol
 OpenBabel07182423433D

 28 29  0  0  1  0  0  0  0  0999 V2000
   54.7610   43.4350   29.3620 C   0  0  1  0  0  0  0  0  0  0  0  0
   53.7620   44.4280   32.1860 Cl  0  0  0  0  0  0  0  0  0  0  0  0
   55.3960   44.6930   29.9770 C   0  0  0  0  0  0  0  0  0  0  0  0
   54.9720   45.2030   31.2220 C   0  0  0  0  0  0  0  0  0  0  0  0
   56.4010   45.4080   29.2940 C   0  0  0  0  0  0  0  0  0  0  0  0
   55.5280   46.3770   31.7490 C   0  0  0  0  0  0  0  0  0  0  0  0
   56.9630   46.5700   29.8290 C   0  0  0  0  0  0  0  0  0  0  0  0
   56.5210   47.0600   31.0560 C   0  0  0  0  0  0  0  0  0  0  0  0
   49.6920   45.1070   26.4970 Cl  0  0  0  0  0  0  0  0  0  0  0  0
   53.4260   43.7800   28.6830 C   0  0  0  0  0  0  0  0  0  0  0  0
   53.2170   43.4260   27.3400 C   0  0  0  0  0  0  0  0  0  0  0  0
   52.4210   44.4980   29.3550 C   0  0  0  0  0  0  0  0  0  0  0  0
   52.0560   43.8190   26.6700 C   0  0  0  0  0  0  0  0  0  0  0  0
   51.2650   44.9000   28.6780 C   0  0  0  0  0  0  0  0  0  0  0  0
   51.0930   44.5690   27.3380 C   0  0  0  0  0  0  0  0  0  0  0  0
   57.3670   42.5210   29.0010 Cl  0  0  0  0  0  0  0  0  0  0  0  0
   55.0960   40.9110   28.2230 Cl  0  0  0  0  0  0  0  0  0  0  0  0
   55.6760   42.6060   28.4090 C   0  0  0  0  0  0  0  0  0  0  0  0
   54.5450   42.7450   30.1900 H   0  0  0  0  0  0  0  0  0  0  0  0
   56.7780   45.0770   28.3280 H   0  0  0  0  0  0  0  0  0  0  0  0
   55.1860   46.7630   32.7070 H   0  0  0  0  0  0  0  0  0  0  0  0
   57.7450   47.0990   29.2890 H   0  0  0  0  0  0  0  0  0  0  0  0
   56.9490   47.9680   31.4690 H   0  0  0  0  0  0  0  0  0  0  0  0
   53.9670   42.8600   26.7910 H   0  0  0  0  0  0  0  0  0  0  0  0
   52.5280   44.7750   30.4000 H   0  0  0  0  0  0  0  0  0  0  0  0
   51.9210   43.5520   25.6250 H   0  0  0  0  0  0  0  0  0  0  0  0
   50.5110   45.4840   29.2010 H   0  0  0  0  0  0  0  0  0  0  0  0
   55.7110   43.0240   27.4000 H   0  0  0  0  0  0  0  0  0  0  0  0
  1  3  1  0  0  0  0
  1 19  1  1  0  0  0
  3  4  1  0  0  0  0
  4  6  2  0  0  0  0
  4  2  1  0  0  0  0
  5  7  1  0  0  0  0
  5  3  2  0  0  0  0
  6 21  1  0  0  0  0
  7  8  2  0  0  0  0
  8 23  1  0  0  0  0
  8  6  1  0  0  0  0
  9 15  1  0  0  0  0
 10 12  1  0  0  0  0
 10  1  1  0  0  0  0
 11 10  2  0  0  0  0
 12 25  1  0  0  0  0
 13 15  2  0  0  0  0
 13 11  1  0  0  0  0
 14 27  1  0  0  0  0
 14 12  2  0  0  0  0
 15 14  1  0  0  0  0
 17 18  1  0  0  0  0
 18 16  1  0  0  0  0
 18  1  1  0  0  0  0
 20  5  1  0  0  0  0
 22  7  1  0  0  0  0
 24 11  1  0  0  0  0
 26 13  1  0  0  0  0
 28 18  1  0  0  0  0
M  END
$$$$

